random-if(cocoaWidget) == bug-442419-progressmeter-max.xul bug-442419-progressmeter-max-ref.xul # fails most of the time on Mac because progress meter animates
!= textbox-multiline-default-value.xul textbox-multiline-empty.xul
fails-if(styloVsGecko) == videocontrols-dynamically-add-cc.html videocontrols-dynamically-add-cc-ref.html
