== videocontrols-dynamically-add-cc.html videocontrols-dynamically-add-cc-ref.html
== audio-with-bogus-url.html audio-with-bogus-url-ref.html
== audio-dynamically-change-small-width.html audio-dynamically-change-small-width-ref.html
== audio-with-padding.html audio-with-padding-ref.html
